data/TasNetworks - TasNetworks sourcebus_11000.trafo_75586990_75586990/Loads.dss
New Load.75592777_nmi_elem_75592777 bus1=3096165.2 kV=0.23094010767585033 Vminpu=0.7 Vmaxpu=1.3 model=1 kW=0.0 kvar=0.0 Phases=1
New Load.75593055_nmi_elem_75593055 bus1=3093228.1.2.3 kV=0.4 Vminpu=0.7 Vmaxpu=1.3 model=1 kW=0.0 kvar=0.0 Phases=3
New Load.75593057_nmi_elem_75593057 bus1=3094658.1.2.3 kV=0.4 Vminpu=0.7 Vmaxpu=1.3 model=1 kW=0.0 kvar=0.0 Phases=3
New Load.75593092_nmi_elem_75593092 bus1=3094954.1.2.3 kV=0.4 Vminpu=0.7 Vmaxpu=1.3 model=1 kW=0.0 kvar=0.0 Phases=3
New Load.75593094_nmi_elem_75593094 bus1=3093747.1.2.3 kV=0.4 Vminpu=0.7 Vmaxpu=1.3 model=1 kW=0.0 kvar=0.0 Phases=3
New Load.75593111_nmi_elem_75593111 bus1=3094691.1.2.3 kV=0.4 Vminpu=0.7 Vmaxpu=1.3 model=1 kW=0.0 kvar=0.0 Phases=3
New Load.NMI_elem_75587836 bus1=3093689.1.2.3 kV=0.4 Vminpu=0.7 Vmaxpu=1.3 model=1 kW=1.408676100907069 kvar=0.28604388231732075 Phases=3
New Load.NMI_elem_75587837 bus1=3094758.1.2.3 kV=0.4 Vminpu=0.7 Vmaxpu=1.3 model=1 kW=0.7655017683782526 kvar=0.15544176379984967 Phases=3
New Load.NMI_elem_75587838 bus1=3093497.1.2.3 kV=0.4 Vminpu=0.7 Vmaxpu=1.3 model=1 kW=1.3456010652158557 kvar=0.27323595005042095 Phases=3
New Load.NMI_elem_75587839 bus1=3094022.1.2.3 kV=0.4 Vminpu=0.7 Vmaxpu=1.3 model=1 kW=2.2028482737696957 kvar=0.4473074200516027 Phases=3
New Load.NMI_elem_75587840 bus1=3096162.3 kV=0.23094010767585033 Vminpu=0.7 Vmaxpu=1.3 model=1 kW=1.5262251056287788 kvar=0.3099132257749714 Phases=1
New Load.NMI_elem_75587841 bus1=3096163.3 kV=0.23094010767585033 Vminpu=0.7 Vmaxpu=1.3 model=1 kW=3.9116088287188853 kvar=0.7942860496838027 Phases=1
New Load.NMI_elem_75587842 bus1=3093736.1.2.3 kV=0.4 Vminpu=0.7 Vmaxpu=1.3 model=1 kW=1.5386489901044715 kvar=0.31243600311647707 Phases=3
New Load.NMI_elem_75587843 bus1=3092835.1.2.3 kV=0.4 Vminpu=0.7 Vmaxpu=1.3 model=1 kW=3.039070531187127 kvar=0.6171095916351297 Phases=3
New Load.NMI_elem_75587844 bus1=3094621.1.2.3 kV=0.4 Vminpu=0.7 Vmaxpu=1.3 model=1 kW=1.7240514616451204 kvar=0.35008358066575535 Phases=3
New Load.NMI_elem_75587845 bus1=3096164.3 kV=0.23094010767585033 Vminpu=0.7 Vmaxpu=1.3 model=1 kW=1.383828331955684 kvar=0.2809983276343093 Phases=1
New Load.NMI_elem_75587846 bus1=3096165.2 kV=0.23094010767585033 Vminpu=0.7 Vmaxpu=1.3 model=1 kW=2.009800531163067 kvar=0.40810740399948253 Phases=1
New Load.NMI_elem_75587847 bus1=3096166.2 kV=0.23094010767585033 Vminpu=0.7 Vmaxpu=1.3 model=1 kW=1.602679730249428 kvar=0.32543799944971596 Phases=1
New Load.NMI_elem_75587848 bus1=3093693.1.2.3 kV=0.4 Vminpu=0.7 Vmaxpu=1.3 model=1 kW=2.8804272375053506 kvar=0.5848956969015411 Phases=3
New Load.NMI_elem_75587849 bus1=3096167.2 kV=0.23094010767585033 Vminpu=0.7 Vmaxpu=1.3 model=1 kW=2.2257848160955795 kvar=0.45196488361587167 Phases=1
New Load.NMI_elem_75587850 bus1=3093861.1.2.3 kV=0.4 Vminpu=0.7 Vmaxpu=1.3 model=1 kW=1.1171928958076514 kvar=0.2268556930925263 Phases=3
New Load.NMI_elem_75587851 bus1=3093193.2 kV=0.23094010767585033 Vminpu=0.7 Vmaxpu=1.3 model=1 kW=2.459477227698328 kvar=0.4994181517162561 Phases=1
New Load.NMI_elem_75587852 bus1=3094032.1.2.3 kV=0.4 Vminpu=0.7 Vmaxpu=1.3 model=1 kW=1.4402136187526753 kvar=0.29244784845077054 Phases=3
New Load.NMI_elem_75587853 bus1=3095098.1.2.3 kV=0.4 Vminpu=0.7 Vmaxpu=1.3 model=1 kW=3.3620913452731447 kvar=0.6827017655003421 Phases=3
New Load.NMI_elem_75587854 bus1=3095101.3 kV=0.23094010767585033 Vminpu=0.7 Vmaxpu=1.3 model=1 kW=1.8473344196663146 kvar=0.3751172530005372 Phases=1
New Load.NMI_elem_75587855 bus1=3095099.1.2.3 kV=0.4 Vminpu=0.7 Vmaxpu=1.3 model=1 kW=0.9012087020161323 kvar=0.1829982319831052 Phases=3
New Load.NMI_elem_75587856 bus1=3095100.1.2.3 kV=0.4 Vminpu=0.7 Vmaxpu=1.3 model=1 kW=2.5430714034591326 kvar=0.5163926730830486 Phases=3
New Load.NMI_elem_75587857 bus1=3093709.1.2.3 kV=0.4 Vminpu=0.7 Vmaxpu=1.3 model=1 kW=2.6529748636918837 kvar=0.5387095225169536 Phases=3
New Load.NMI_elem_75587858 bus1=3094007.1.2.3 kV=0.4 Vminpu=0.7 Vmaxpu=1.3 model=1 kW=2.4350791698518837 kvar=0.4944639147678863 Phases=3
New Load.NMI_elem_75587859 bus1=3096168.2 kV=0.23094010767585033 Vminpu=0.7 Vmaxpu=1.3 model=1 kW=2.592766759079916 kvar=0.5264837454351355 Phases=1
New Load.NMI_elem_75587860 bus1=3094818.1.2.3 kV=0.4 Vminpu=0.7 Vmaxpu=1.3 model=1 kW=1.3905181719908992 kvar=0.28235675759171586 Phases=3
New Load.NMI_elem_75587861 bus1=3096169.1 kV=0.23094010767585033 Vminpu=0.7 Vmaxpu=1.3 model=1 kW=5.145395024794502 kvar=1.0448170221676403 Phases=1
New Load.NMI_elem_75587862 bus1=3093414.1.2.3 kV=0.4 Vminpu=0.7 Vmaxpu=1.3 model=1 kW=2.0556732512508606 kvar=0.4174222571001486 Phases=3
New Load.NMI_elem_75587863 bus1=3093412.1.2.3 kV=0.4 Vminpu=0.7 Vmaxpu=1.3 model=1 kW=8.393760274301906 kvar=1.7044257189826568 Phases=3
New Load.NMI_elem_75587864 bus1=3092840.1.2.3 kV=0.4 Vminpu=0.7 Vmaxpu=1.3 model=1 kW=2.459477227698328 kvar=0.49941815171625614 Phases=3
New Load.NMI_elem_75587865 bus1=3094543.1.2.3 kV=0.4 Vminpu=0.7 Vmaxpu=1.3 model=1 kW=0.9661950554738403 kvar=0.1961942738757154 Phases=3
New Load.NMI_elem_75588117 bus1=3096176.3 kV=0.23094010767585033 Vminpu=0.7 Vmaxpu=1.3 model=1 kW=1.215628267159447 kvar=0.2468438477582327 Phases=1
New Load.NMI_elem_75588118 bus1=3096177.2 kV=0.23094010767585033 Vminpu=0.7 Vmaxpu=1.3 model=1 kW=1.5204909700473077 kvar=0.30874885988390405 Phases=1
New Load.NMI_elem_75588119 bus1=3095070.2.3 kV=0.4 Vminpu=0.7 Vmaxpu=1.3 model=1 kW=2.245854062778244 kvar=0.45604011796718696 Phases=2
New Load.NMI_elem_75588120 bus1=3096178.2 kV=0.23094010767585033 Vminpu=0.7 Vmaxpu=1.3 model=1 kW=1.196514633789533 kvar=0.24296265896628852 Phases=1
New Load.NMI_elem_75588121 bus1=3093413.1.2.3 kV=0.4 Vminpu=0.7 Vmaxpu=1.3 model=1 kW=1.0780099246140793 kvar=0.21889925144229871 Phases=3
New Load.NMI_elem_75588122 bus1=3096179.1 kV=0.23094010767585033 Vminpu=0.7 Vmaxpu=1.3 model=1 kW=4.12185906921092 kvar=0.8369791819160926 Phases=1
New Load.NMI_elem_75588123 bus1=3096180.2 kV=0.23094010767585033 Vminpu=0.7 Vmaxpu=1.3 model=1 kW=1.0264030689448145 kvar=0.20842003245056548 Phases=1
New Load.NMI_elem_75588124 bus1=3093228.1.2.3 kV=0.4 Vminpu=0.7 Vmaxpu=1.3 model=1 kW=1.7078048504954455 kvar=0.34678456556586085 Phases=3
New Load.NMI_elem_75588125 bus1=3093227.1.2.3 kV=0.4 Vminpu=0.7 Vmaxpu=1.3 model=1 kW=3.938367824295772 kvar=0.7997196954855568 Phases=3
New Load.NMI_elem_75588126 bus1=3094658.1.2.3 kV=0.4 Vminpu=0.7 Vmaxpu=1.3 model=1 kW=4.581542156824589 kvar=0.9303218140030276 Phases=3
New Load.NMI_elem_75588127 bus1=3096181.3 kV=0.23094010767585033 Vminpu=0.7 Vmaxpu=1.3 model=1 kW=2.2238734071880915 kvar=0.4515767554831932 Phases=1
New Load.NMI_elem_75588128 bus1=3096182.2 kV=0.23094010767585033 Vminpu=0.7 Vmaxpu=1.3 model=1 kW=0.8916518397606787 kvar=0.18105762833364913 Phases=1
New Load.NMI_elem_75588129 bus1=3096183.1 kV=0.23094010767585033 Vminpu=0.7 Vmaxpu=1.3 model=1 kW=4.119947660303432 kvar=0.836591053783414 Phases=1
New Load.NMI_elem_75588130 bus1=3096184.1 kV=0.23094010767585033 Vminpu=0.7 Vmaxpu=1.3 model=1 kW=0.823798372941739 kvar=0.1672793942420214 Phases=1
New Load.NMI_elem_75588131 bus1=3096185.2 kV=0.23094010767585033 Vminpu=0.7 Vmaxpu=1.3 model=1 kW=0.4663731099308695 kvar=0.09470109905827755 Phases=1
New Load.NMI_elem_75588132 bus1=3096186.2 kV=0.23094010767585033 Vminpu=0.7 Vmaxpu=1.3 model=1 kW=0.868715479716782 kvar=0.17640020178331617 Phases=1
New Load.NMI_elem_75588133 bus1=3096187.1 kV=0.23094010767585033 Vminpu=0.7 Vmaxpu=1.3 model=1 kW=1.0780099246140793 kvar=0.21889925144229871 Phases=1
New Load.NMI_elem_75588134 bus1=3096188.2 kV=0.23094010767585033 Vminpu=0.7 Vmaxpu=1.3 model=1 kW=0.8992972931086444 kvar=0.1826101038504268 Phases=1
New Load.NMI_elem_75588135 bus1=3096189.1 kV=0.23094010767585033 Vminpu=0.7 Vmaxpu=1.3 model=1 kW=0.7291858194049192 kvar=0.14806749584167175 Phases=1
New Load.NMI_elem_75588136 bus1=3096190.2 kV=0.23094010767585033 Vminpu=0.7 Vmaxpu=1.3 model=1 kW=1.0149348889228662 kvar=0.20609131917539902 Phases=1
New Load.NMI_elem_75588137 bus1=3096191.2 kV=0.23094010767585033 Vminpu=0.7 Vmaxpu=1.3 model=1 kW=0.5428276889810223 kvar=0.1102258634795382 Phases=1
New Load.NMI_elem_75588138 bus1=3096192.3 kV=0.23094010767585033 Vminpu=0.7 Vmaxpu=1.3 model=1 kW=1.5969455035269642 kvar=0.32427361505168073 Phases=1
New Load.NMI_elem_75588139 bus1=3096193.2 kV=0.23094010767585033 Vminpu=0.7 Vmaxpu=1.3 model=1 kW=0.552384551236476 kvar=0.11216646712899428 Phases=1
New Load.NMI_elem_75588140 bus1=3096194.1 kV=0.23094010767585033 Vminpu=0.7 Vmaxpu=1.3 model=1 kW=0.5485617789919965 kvar=0.11139022011712144 Phases=1
New Load.NMI_elem_75588141 bus1=3096195.2 kV=0.23094010767585033 Vminpu=0.7 Vmaxpu=1.3 model=1 kW=0.9117211775843369 kvar=0.18513288119193252 Phases=1
New Load.NMI_elem_75588142 bus1=3092841.1.2.3 kV=0.4 Vminpu=0.7 Vmaxpu=1.3 model=1 kW=1.4392580054399247 kvar=0.29225380289139935 Phases=3
New Load.NMI_elem_75588143 bus1=3094549.1.2.3 kV=0.4 Vminpu=0.7 Vmaxpu=1.3 model=1 kW=0.9289234931877561 kvar=0.18862596035816626 Phases=3
New Load.NMI_elem_75588144 bus1=3094550.1.2.3 kV=0.4 Vminpu=0.7 Vmaxpu=1.3 model=1 kW=5.945301242097607 kvar=1.2072449072860214 Phases=3
New Load.NMI_elem_75588145 bus1=3092842.1.2.3 kV=0.4 Vminpu=0.7 Vmaxpu=1.3 model=1 kW=1.5061557678051207 kvar=0.305837972916688 Phases=3
New Load.NMI_elem_75588146 bus1=3092843.1.2.3 kV=0.4 Vminpu=0.7 Vmaxpu=1.3 model=1 kW=2.4188325587022077 kvar=0.4911648996679917 Phases=3
New Load.NMI_elem_75588147 bus1=3093481.1.2.3 kV=0.4 Vminpu=0.7 Vmaxpu=1.3 model=1 kW=1.8540241685605365 kvar=0.3764756644509757 Phases=3
New Load.NMI_elem_75588148 bus1=3096196.2 kV=0.23094010767585033 Vminpu=0.7 Vmaxpu=1.3 model=1 kW=1.9362129287626568 kvar=0.39316480401678766 Phases=1
New Load.NMI_elem_75588149 bus1=3096197.2 kV=0.23094010767585033 Vminpu=0.7 Vmaxpu=1.3 model=1 kW=2.2248291116418355 kvar=0.45177081954953247 Phases=1
New Load.NMI_elem_75588150 bus1=3096198.3 kV=0.23094010767585033 Vminpu=0.7 Vmaxpu=1.3 model=1 kW=1.3752272652949677 kvar=0.27925180655816045 Phases=1
New Load.NMI_elem_75588151 bus1=3096199.1 kV=0.23094010767585033 Vminpu=0.7 Vmaxpu=1.3 model=1 kW=1.6571536081389313 kvar=0.33649939213349883 Phases=1
New Load.NMI_elem_75588152 bus1=3094435.1.2.3 kV=0.4 Vminpu=0.7 Vmaxpu=1.3 model=1 kW=4.410475252090097 kvar=0.8955851974488374 Phases=3
New Load.NMI_elem_75588153 bus1=3094008.1.2.3 kV=0.4 Vminpu=0.7 Vmaxpu=1.3 model=1 kW=2.016490280057289 kvar=0.4094658154499211 Phases=3
New Load.NMI_elem_75588154 bus1=3094749.1.2.3 kV=0.4 Vminpu=0.7 Vmaxpu=1.3 model=1 kW=1.149686118107002 kvar=0.23345372329231534 Phases=3
New Load.NMI_elem_75588155 bus1=3094564.1.2.3 kV=0.4 Vminpu=0.7 Vmaxpu=1.3 model=1 kW=1.4602829565763333 kvar=0.2965231013090539 Phases=3
New Load.NMI_elem_75588156 bus1=3094141.1.2.3 kV=0.4 Vminpu=0.7 Vmaxpu=1.3 model=1 kW=1.3580249496915484 kvar=0.2757587273919267 Phases=3
New Load.NMI_elem_75588157 bus1=3093656.1.2.3 kV=0.4 Vminpu=0.7 Vmaxpu=1.3 model=1 kW=2.550716856807099 kvar=0.5179451485998264 Phases=3
New Load.NMI_elem_75588158 bus1=3092833.1.2.3 kV=0.4 Vminpu=0.7 Vmaxpu=1.3 model=1 kW=3.040026235640872 kvar=0.6173036557014688 Phases=3
New Load.NMI_elem_75588159 bus1=3093850.1.2.3 kV=0.4 Vminpu=0.7 Vmaxpu=1.3 model=1 kW=1.647596745883478 kvar=0.3345587884840428 Phases=3
New Load.NMI_elem_75588160 bus1=3092760.1.2.3 kV=0.4 Vminpu=0.7 Vmaxpu=1.3 model=1 kW=1.5224023789547956 kvar=0.30913698801658246 Phases=3
New Load.NMI_elem_75588161 bus1=3094954.1.2.3 kV=0.4 Vminpu=0.7 Vmaxpu=1.3 model=1 kW=1.4201442809290175 kvar=0.28837259559248724 Phases=3
New Load.NMI_elem_75588162 bus1=3094365.1.2.3 kV=0.4 Vminpu=0.7 Vmaxpu=1.3 model=1 kW=3.0725196402222075 kvar=0.6239017229151939 Phases=3
New Load.NMI_elem_75588163 bus1=3093747.1.2.3 kV=0.4 Vminpu=0.7 Vmaxpu=1.3 model=1 kW=2.459477227698328 kvar=0.49941815171625614 Phases=3
New Load.NMI_elem_75588164 bus1=3093021.1.2.3 kV=0.4 Vminpu=0.7 Vmaxpu=1.3 model=1 kW=2.9587931798924947 kvar=0.6008085802019961 Phases=3
New Load.NMI_elem_75588165 bus1=3094225.1.2.3 kV=0.4 Vminpu=0.7 Vmaxpu=1.3 model=1 kW=2.922477322060155 kvar=0.5934343307507863 Phases=3
New Load.NMI_elem_75588166 bus1=3095132.1.2.3 kV=0.4 Vminpu=0.7 Vmaxpu=1.3 model=1 kW=4.175377060364694 kvar=0.8478464735196003 Phases=3
New Load.NMI_elem_75588167 bus1=3096200.3 kV=0.23094010767585033 Vminpu=0.7 Vmaxpu=1.3 model=1 kW=1.2662794183749675 kvar=0.2571290026836267 Phases=1
New Load.NMI_elem_75588170 bus1=3094033.1.2.3 kV=0.4 Vminpu=0.7 Vmaxpu=1.3 model=1 kW=3.6640870259407667 kvar=0.7440246039339637 Phases=3
New Load.NMI_elem_75588171 bus1=3092834.1.2.3 kV=0.4 Vminpu=0.7 Vmaxpu=1.3 model=1 kW=1.4287454387307268 kvar=0.29011913517560406 Phases=3
New Load.NMI_elem_75588172 bus1=3096201.2 kV=0.23094010767585033 Vminpu=0.7 Vmaxpu=1.3 model=1 kW=2.245854062778244 kvar=0.45604011796718696 Phases=1
New Load.NMI_elem_75588173 bus1=3096202.2 kV=0.23094010767585033 Vminpu=0.7 Vmaxpu=1.3 model=1 kW=0.7186732982662184 kvar=0.1459328373793605 Phases=1
New Load.NMI_elem_75588174 bus1=3093642.2.3 kV=0.4 Vminpu=0.7 Vmaxpu=1.3 model=1 kW=1.40580907868683 kvar=0.28546170862527104 Phases=2
New Load.NMI_elem_75588175 bus1=3094103.1.2.3 kV=0.4 Vminpu=0.7 Vmaxpu=1.3 model=1 kW=4.779368421699936 kvar=0.9704921503868437 Phases=3
New Load.NMI_elem_75588176 bus1=3096203.2 kV=0.23094010767585033 Vminpu=0.7 Vmaxpu=1.3 model=1 kW=2.355757523010995 kvar=0.4783569674010919 Phases=1
New Load.NMI_elem_75588177 bus1=3096204.3 kV=0.23094010767585033 Vminpu=0.7 Vmaxpu=1.3 model=1 kW=1.058896291244165 kvar=0.21501806265035456 Phases=1
New Load.NMI_elem_75588178 bus1=3094932.1.2.3 kV=0.4 Vminpu=0.7 Vmaxpu=1.3 model=1 kW=4.99153007109946 kvar=1.013573410751812 Phases=3
New Load.NMI_elem_75588179 bus1=3094958.1.2.3 kV=0.4 Vminpu=0.7 Vmaxpu=1.3 model=1 kW=1.9973765555463816 kvar=0.4055846081510089 Phases=3
New Load.NMI_elem_75588180 bus1=3094691.1.2.3 kV=0.4 Vminpu=0.7 Vmaxpu=1.3 model=1 kW=1.2223180160536686 kvar=0.24820225920867114 Phases=3
New Load.NMI_elem_75588181 bus1=3093498.1.2.3 kV=0.4 Vminpu=0.7 Vmaxpu=1.3 model=1 kW=0.6986039604425602 kvar=0.1418575845210771 Phases=3
New Load.NMI_elem_75588182 bus1=3093577.1.2.3 kV=0.4 Vminpu=0.7 Vmaxpu=1.3 model=1 kW=1.059851995697909 kvar=0.2152121267166938 Phases=3
New Load.NMI_elem_75590855 bus1=3093710.1.2.3 kV=0.4 Vminpu=0.7 Vmaxpu=1.3 model=1 kW=1.0101564577951392 kvar=0.20512101735067093 Phases=3
New Load.NMI_elem_75591122 bus1=3096424.1 kV=0.23094010767585033 Vminpu=0.7 Vmaxpu=1.3 model=1 kW=3.822730319622543 kvar=0.7762384986675522 Phases=1
New Load.NMI_elem_75591419 bus1=3096436.2 kV=0.23094010767585033 Vminpu=0.7 Vmaxpu=1.3 model=1 kW=1.185046362626591 kvar=0.24063392718415402 Phases=1
New Load.NMI_elem_75591654 bus1=3096467.2 kV=0.23094010767585033 Vminpu=0.7 Vmaxpu=1.3 model=1 kW=1.339867020775378 kvar=0.27207160266632174 Phases=1
New Load.NMI_elem_75591799 bus1=3096479.2 kV=0.23094010767585033 Vminpu=0.7 Vmaxpu=1.3 model=1 kW=2.108123338027138 kvar=0.4280727014710767 Phases=1
New Load.NMI_elem_75591800 bus1=3096480.3 kV=0.23094010767585033 Vminpu=0.7 Vmaxpu=1.3 model=1 kW=2.459477227698328 kvar=0.4994181517162561 Phases=1
New Load.NMI_elem_75591825 bus1=3095071.1.2.3 kV=0.4 Vminpu=0.7 Vmaxpu=1.3 model=1 kW=2.459477227698328 kvar=0.49941815171625614 Phases=3
New Load.NMI_elem_75591842 bus1=3096485.1 kV=0.23094010767585033 Vminpu=0.7 Vmaxpu=1.3 model=1 kW=2.459477227698328 kvar=0.4994181517162561 Phases=1
New Load.NMI_elem_75591877 bus1=3096491.1 kV=0.23094010767585033 Vminpu=0.7 Vmaxpu=1.3 model=1 kW=2.459477227698328 kvar=0.4994181517162561 Phases=1
